examples/Nordic/data/inputs/operating_point_5/Nordic.xiidm
<?xml version="1.0" encoding="UTF-8"?>
<iidm:network xmlns:iidm="http://www.powsybl.org/schema/iidm/1_5" id="Nordic32_corrige" caseDate="2019-07-30T16:39:00+02:00" forecastDistance="0" sourceFormat="NF">
    <iidm:substation id="_19fe9db0-63e5-4f87-a503-0867c0a01369" country="FR" tso="RTE">
        <iidm:voltageLevel id="1011_130" nominalV="130" highVoltageLimit="136.5" topologyKind="BUS_BREAKER">
            <iidm:busBreakerTopology>
                <iidm:bus id="1011_131" v="124.11676155292615" angle="69.417825466871804"/>
            </iidm:busBreakerTopology>
        </iidm:voltageLevel>
        <iidm:voltageLevel id="4011_400" nominalV="400" highVoltageLimit="420" topologyKind="BUS_BREAKER">
            <iidm:busBreakerTopology>
                <iidm:bus id="4011_401" v="367.73838753850703" angle="68.507913935575459"/>
            </iidm:busBreakerTopology>
        </iidm:voltageLevel>
        <iidm:voltageLevel id="B11___20" nominalV="20" highVoltageLimit="21" topologyKind="BUS_BREAKER">
            <iidm:busBreakerTopology>
                <iidm:bus id="B11___21" v="17.878990675688215" angle="65.056066088062792"/>
            </iidm:busBreakerTopology>
            <iidm:load id="11_1" loadType="UNDEFINED" p0="279.99200000000002" q0="96.314300000000003" bus="B11___21" connectableBus="B11___21" p="249.65836735086958" q="76.575841725243421"/>
        </iidm:voltageLevel>
        <iidm:voltageLevel id="BG09__15" nominalV="15" highVoltageLimit="15.750001907348633" topologyKind="BUS_BREAKER">
            <iidm:busBreakerTopology>
                <iidm:bus id="BG09__11" v="13.949027581515534" angle="75.957464304358638"/>
            </iidm:busBreakerTopology>
            <iidm:generator id="g09" energySource="HYDRO" minP="0" maxP="9999" voltageRegulatorOn="true" targetP="668.5" targetV="14.981999397277832" targetQ="201.25199890136719" bus="BG09__11" connectableBus="BG09__11" p="-703.77561940696353" q="-382.87187421727543">
                <iidm:property name="genreCvg" value="AUTRE"/>
                <iidm:reactiveCapabilityCurve>
                    <iidm:point p="0" minQ="-1000" maxQ="1000"/>
                    <iidm:point p="9999" minQ="-1000" maxQ="1000"/>
                </iidm:reactiveCapabilityCurve>
            </iidm:generator>
        </iidm:voltageLevel>
        <iidm:twoWindingsTransformer id="Tr1011-4011" r="0" x="1.3519998788833618" g="0" b="0" ratedU1="400" ratedU2="130" bus1="4011_401" connectableBus1="4011_401" voltageLevelId1="4011_400" bus2="1011_131" connectableBus2="1011_131" voltageLevelId2="1011_130" p1="-183.40484429883682" q1="158.57155489519312" p2="183.40484429883642" q2="-153.55014626017277">
            <iidm:ratioTapChanger lowTapPosition="0" tapPosition="0" loadTapChangingCapabilities="false">
                <iidm:step r="0" x="0" g="0" b="0" rho="1.0526316165924072"/>
                <iidm:step r="0" x="0" g="0" b="0" rho="1.0416667461395264"/>
                <iidm:step r="0" x="0" g="0" b="0" rho="1.0309277772903442"/>
                <iidm:step r="0" x="0" g="0" b="0" rho="1.0204081535339355"/>
                <iidm:step r="0" x="0" g="0" b="0" rho="1.0101009607315063"/>
                <iidm:step r="0" x="0" g="0" b="0" rho="1"/>
                <iidm:step r="0" x="0" g="0" b="0" rho="0.99009901285171509"/>
                <iidm:step r="0" x="0" g="0" b="0" rho="0.98039215803146362"/>
                <iidm:step r="0" x="0" g="0" b="0" rho="0.97087383270263672"/>
                <iidm:step r="0" x="0" g="0" b="0" rho="0.96153849363327026"/>
                <iidm:step r="0" x="0" g="0" b="0" rho="0.95238101482391357"/>
            </iidm:ratioTapChanger>
            <iidm:currentLimits1 permanentLimit="5551.43994140625"/>
            <iidm:currentLimits2 permanentLimit="5551.43994140625"/>
        </iidm:twoWindingsTransformer>
        <iidm:twoWindingsTransformer id="Tr11-1011" r="0" x="0.10000003129243851" g="0" b="0" ratedU1="130" ratedU2="20" bus1="1011_131" connectableBus1="1011_131" voltageLevelId1="1011_130" bus2="B11___21" connectableBus2="B11___21" voltageLevelId2="B11___20" p1="249.65836739011485" q1="97.908989649433622" p2="-249.65836739011485" q2="-76.575841225252091">
            <iidm:ratioTapChanger lowTapPosition="0" tapPosition="24" targetDeadband="0" loadTapChangingCapabilities="true" regulating="true" targetV="20">
                <iidm:terminalRef id="Tr11-1011" side="TWO"/>
                <iidm:step r="0" x="0" g="0" b="0" rho="1.25"/>
                <iidm:step r="0" x="0" g="0" b="0" rho="1.2345678806304932"/>
                <iidm:step r="0" x="0" g="0" b="0" rho="1.2195122241973877"/>
                <iidm:step r="0" x="0" g="0" b="0" rho="1.2048193216323853"/>
                <iidm:step r="0" x="0" g="0" b="0" rho="1.1904761791229248"/>
                <iidm:step r="0" x="0" g="0" b="0" rho="1.1764705181121826"/>
                <iidm:step r="0" x="0" g="0" b="0" rho="1.1627906560897827"/>
                <iidm:step r="0" x="0" g="0" b="0" rho="1.1494252681732178"/>
                <iidm:step r="0" x="0" g="0" b="0" rho="1.1363636255264282"/>
                <iidm:step r="0" x="0" g="0" b="0" rho="1.1235954761505127"/>
                <iidm:step r="0" x="0" g="0" b="0" rho="1.1111111640930176"/>
                <iidm:step r="0" x="0" g="0" b="0" rho="1.0989010334014893"/>
                <iidm:step r="0" x="0" g="0" b="0" rho="1.0869565010070801"/>
                <iidm:step r="0" x="0" g="0" b="0" rho="1.0752688646316528"/>
                <iidm:step r="0" x="0" g="0" b="0" rho="1.063829779624939"/>
                <iidm:step r="0" x="0" g="0" b="0" rho="1.0526316165924072"/>
                <iidm:step r="0" x="0" g="0" b="0" rho="1.0416667461395264"/>
                <iidm:step r="0" x="0" g="0" b="0" rho="1.0309277772903442"/>
                <iidm:step r="0" x="0" g="0" b="0" rho="1.0204081535339355"/>
                <iidm:step r="0" x="0" g="0" b="0" rho="1.0101009607315063"/>
                <iidm:step r="0" x="0" g="0" b="0" rho="1"/>
                <iidm:step r="0" x="0" g="0" b="0" rho="0.99009901285171509"/>
                <iidm:step r="0" x="0" g="0" b="0" rho="0.98039215803146362"/>
                <iidm:step r="0" x="0" g="0" b="0" rho="0.97087383270263672"/>
                <iidm:step r="0" x="0" g="0" b="0" rho="0.96153849363327026"/>
                <iidm:step r="0" x="0" g="0" b="0" rho="0.95238101482391357"/>
                <iidm:step r="0" x="0" g="0" b="0" rho="0.94339627027511597"/>
                <iidm:step r="0" x="0" g="0" b="0" rho="0.93457937240600586"/>
                <iidm:step r="0" x="0" g="0" b="0" rho="0.92592591047286987"/>
                <iidm:step r="0" x="0" g="0" b="0" rho="0.91743117570877075"/>
                <iidm:step r="0" x="0" g="0" b="0" rho="0.90909087657928467"/>
                <iidm:step r="0" x="0" g="0" b="0" rho="0.90090090036392212"/>
                <iidm:step r="0" x="0" g="0" b="0" rho="0.8928571343421936"/>
            </iidm:ratioTapChanger>
            <iidm:currentLimits1 permanentLimit="11547"/>
            <iidm:currentLimits2 permanentLimit="11547"/>
        </iidm:twoWindingsTransformer>
        <iidm:twoWindingsTransformer id="Tr4011-g9" r="0" x="0.033750001341104507" g="0" b="0" ratedU1="400" ratedU2="15" bus1="4011_401" connectableBus1="4011_401" voltageLevelId1="4011_400" bus2="BG09__11" connectableBus2="BG09__11" voltageLevelId2="BG09__15" p1="-703.77561925799716" q1="-271.53290121612906" p2="703.77561925799705" q2="382.87187421727486">
            <iidm:ratioTapChanger lowTapPosition="0" tapPosition="10" loadTapChangingCapabilities="false">
                <iidm:step r="0" x="0" g="0" b="0" rho="1.0526316165924072"/>
                <iidm:step r="0" x="0" g="0" b="0" rho="1.0416667461395264"/>
                <iidm:step r="0" x="0" g="0" b="0" rho="1.0309277772903442"/>
                <iidm:step r="0" x="0" g="0" b="0" rho="1.0204081535339355"/>
                <iidm:step r="0" x="0" g="0" b="0" rho="1.0101009607315063"/>
                <iidm:step r="0" x="0" g="0" b="0" rho="1"/>
                <iidm:step r="0" x="0" g="0" b="0" rho="0.99009901285171509"/>
                <iidm:step r="0" x="0" g="0" b="0" rho="0.98039215803146362"/>
                <iidm:step r="0" x="0" g="0" b="0" rho="0.97087383270263672"/>
                <iidm:step r="0" x="0" g="0" b="0" rho="0.96153849363327026"/>
                <iidm:step r="0" x="0" g="0" b="0" rho="0.95238101482391357"/>
            </iidm:ratioTapChanger>
            <iidm:currentLimits1 permanentLimit="38490"/>
            <iidm:currentLimits2 permanentLimit="38490"/>
        </iidm:twoWindingsTransformer>
    </iidm:substation>
    <iidm:substation id="_2733fb31-de68-473c-bbb7-234a34f4d82f" country="FR" tso="RTE">
        <iidm:voltageLevel id="1012_130" nominalV="130" highVoltageLimit="136.5" topologyKind="BUS_BREAKER">
            <iidm:busBreakerTopology>
                <iidm:bus id="1012_131" v="126.06652757332714" angle="73.442242617923938"/>
            </iidm:busBreakerTopology>
        </iidm:voltageLevel>
        <iidm:voltageLevel id="4012_400" nominalV="400" highVoltageLimit="420" topologyKind="BUS_BREAKER">
            <iidm:busBreakerTopology>
                <iidm:bus id="4012_401" v="370.87980489583646" angle="70.618323790950228"/>
            </iidm:busBreakerTopology>
            <iidm:shunt id="4012-Ind" sectionCount="1" voltageRegulatorOn="false" bus="4012_401" connectableBus="4012_401" q="85.969891628156731">
                <iidm:property name="qMax" value="-100"/>
                <iidm:shuntLinearModel bPerSection="-0.00062499998603016138" maximumSectionCount="1"/>
            </iidm:shunt>
        </iidm:voltageLevel>
        <iidm:voltageLevel id="B12___20" nominalV="20" highVoltageLimit="21" topologyKind="BUS_BREAKER">
            <iidm:busBreakerTopology>
                <iidm:bus id="B12___21" v="18.062922097461051" angle="69.084505685350763"/>
            </iidm:busBreakerTopology>
            <iidm:load id="12_1" loadType="UNDEFINED" p0="420.00299999999999" q0="117.322" bus="B12___21" connectableBus="B12___21" p="380.2728916597876" q="96.175711347674593"/>
        </iidm:voltageLevel>
        <iidm:voltageLevel id="BG01__15" nominalV="15" highVoltageLimit="15.750001907348633" topologyKind="BUS_BREAKER">
            <iidm:busBreakerTopology>
                <iidm:bus id="BG01__11" v="15.000390506953064" angle="80.469253684502135"/>
            </iidm:busBreakerTopology>
            <iidm:generator id="g01" energySource="HYDRO" minP="0" maxP="9999" voltageRegulatorOn="true" targetP="600" targetV="16.025999069213867" targetQ="58.340000152587891" bus="BG01__11" connectableBus="BG01__11" p="-632.73971492193573" q="-200.36597389705148">
                <iidm:property name="genreCvg" value="AUTRE"/>
                <iidm:reactiveCapabilityCurve>
                    <iidm:point p="0" minQ="-800" maxQ="800"/>
                    <iidm:point p="9999" minQ="-800" maxQ="800"/>
                </iidm:reactiveCapabilityCurve>
            </iidm:generator>
        </iidm:voltageLevel>
        <iidm:voltageLevel id="BG10__15" nominalV="15" highVoltageLimit="15.750001907348633" topologyKind="BUS_BREAKER">
            <iidm:busBreakerTopology>
                <iidm:bus id="BG10__11" v="14.219102755796392" angle="78.733855543179857"/>
            </iidm:busBreakerTopology>
            <iidm:generator id="g10" energySource="HYDRO" minP="0" maxP="9999" voltageRegulatorOn="true" targetP="600" targetV="15.235500335693359" targetQ="255.70100402832031" bus="BG10__11" connectableBus="BG10__11" p="-630.23826800946711" q="-372.7872692567945">
                <iidm:property name="genreCvg" value="AUTRE"/>
                <iidm:reactiveCapabilityCurve>
                    <iidm:point p="0" minQ="-800" maxQ="800"/>
                    <iidm:point p="9999" minQ="-800" maxQ="800"/>
                </iidm:reactiveCapabilityCurve>
            </iidm:generator>
        </iidm:voltageLevel>
        <iidm:twoWindingsTransformer id="Tr1012-4012" r="0" x="1.3519998788833618" g="0" b="0" ratedU1="400" ratedU2="130" bus1="4012_401" connectableBus1="4012_401" voltageLevelId1="4012_400" bus2="1012_131" connectableBus2="1012_131" voltageLevelId2="1012_130" p1="-582.86748283980114" q1="90.702100214835426" p2="582.8674828398016" q2="-61.479303623592642">
            <iidm:ratioTapChanger lowTapPosition="0" tapPosition="0" loadTapChangingCapabilities="false">
                <iidm:step r="0" x="0" g="0" b="0" rho="1.0526316165924072"/>
                <iidm:step r="0" x="0" g="0" b="0" rho="1.0416667461395264"/>
                <iidm:step r="0" x="0" g="0" b="0" rho="1.0309277772903442"/>
                <iidm:step r="0" x="0" g="0" b="0" rho="1.0204081535339355"/>
                <iidm:step r="0" x="0" g="0" b="0" rho="1.0101009607315063"/>
                <iidm:step r="0" x="0" g="0" b="0" rho="1"/>
                <iidm:step r="0" x="0" g="0" b="0" rho="0.99009901285171509"/>
                <iidm:step r="0" x="0" g="0" b="0" rho="0.98039215803146362"/>
                <iidm:step r="0" x="0" g="0" b="0" rho="0.97087383270263672"/>
                <iidm:step r="0" x="0" g="0" b="0" rho="0.96153849363327026"/>
                <iidm:step r="0" x="0" g="0" b="0" rho="0.95238101482391357"/>
            </iidm:ratioTapChanger>
            <iidm:currentLimits1 permanentLimit="5551.43994140625"/>
            <iidm:currentLimits2 permanentLimit="5551.43994140625"/>
        </iidm:twoWindingsTransformer>
        <iidm:twoWindingsTransformer id="Tr1012-g1" r="0" x="0.042187508195638657" g="0" b="0" ratedU1="130" ratedU2="15" bus1="1012_131" connectableBus1="1012_131" voltageLevelId1="1012_130" bus2="BG01__11" connectableBus2="BG01__11" voltageLevelId2="BG01__15" p1="-632.73971487929668" q1="-117.77537002384351" p2="632.73971487929668" q2="200.36597389705193">
            <iidm:ratioTapChanger lowTapPosition="0" tapPosition="5" loadTapChangingCapabilities="false">
                <iidm:step r="0" x="0" g="0" b="0" rho="1.0526316165924072"/>
                <iidm:step r="0" x="0" g="0" b="0" rho="1.0416667461395264"/>
                <iidm:step r="0" x="0" g="0" b="0" rho="1.0309277772903442"/>
                <iidm:step r="0" x="0" g="0" b="0" rho="1.0204081535339355"/>
                <iidm:step r="0" x="0" g="0" b="0" rho="1.0101009607315063"/>
                <iidm:step r="0" x="0" g="0" b="0" rho="1"/>
                <iidm:step r="0" x="0" g="0" b="0" rho="0.99009901285171509"/>
                <iidm:step r="0" x="0" g="0" b="0" rho="0.98039215803146362"/>
                <iidm:step r="0" x="0" g="0" b="0" rho="0.97087383270263672"/>
                <iidm:step r="0" x="0" g="0" b="0" rho="0.96153849363327026"/>
                <iidm:step r="0" x="0" g="0" b="0" rho="0.95238101482391357"/>
            </iidm:ratioTapChanger>
            <iidm:currentLimits1 permanentLimit="30791.998046875"/>
            <iidm:currentLimits2 permanentLimit="30791.998046875"/>
        </iidm:twoWindingsTransformer>
        <iidm:twoWindingsTransformer id="Tr12-1012" r="0" x="0.066666767001152039" g="0" b="0" ratedU1="130" ratedU2="20" bus1="1012_131" connectableBus1="1012_131" voltageLevelId1="1012_130" bus2="B12___21" connectableBus2="B12___21" voltageLevelId2="B12___20" p1="380.27289167195073" q1="127.6134507369633" p2="-380.27289167195056" q2="-96.175711090370569">
            <iidm:ratioTapChanger lowTapPosition="0" tapPosition="25" targetDeadband="0" loadTapChangingCapabilities="true" regulating="true" targetV="20">
                <iidm:terminalRef id="Tr12-1012" side="TWO"/>
                <iidm:step r="0" x="0" g="0" b="0" rho="1.25"/>
                <iidm:step r="0" x="0" g="0" b="0" rho="1.2345678806304932"/>
                <iidm:step r="0" x="0" g="0" b="0" rho="1.2195122241973877"/>
                <iidm:step r="0" x="0" g="0" b="0" rho="1.2048193216323853"/>
                <iidm:step r="0" x="0" g="0" b="0" rho="1.1904761791229248"/>
                <iidm:step r="0" x="0" g="0" b="0" rho="1.1764705181121826"/>
                <iidm:step r="0" x="0" g="0" b="0" rho="1.1627906560897827"/>
                <iidm:step r="0" x="0" g="0" b="0" rho="1.1494252681732178"/>
                <iidm:step r="0" x="0" g="0" b="0" rho="1.1363636255264282"/>
                <iidm:step r="0" x="0" g="0" b="0" rho="1.1235954761505127"/>
                <iidm:step r="0" x="0" g="0" b="0" rho="1.1111111640930176"/>
                <iidm:step r="0" x="0" g="0" b="0" rho="1.0989010334014893"/>
                <iidm:step r="0" x="0" g="0" b="0" rho="1.0869565010070801"/>
                <iidm:step r="0" x="0" g="0" b="0" rho="1.0752688646316528"/>
                <iidm:step r="0" x="0" g="0" b="0" rho="1.063829779624939"/>
                <iidm:step r="0" x="0" g="0" b="0" rho="1.0526316165924072"/>
                <iidm:step r="0" x="0" g="0" b="0" rho="1.0416667461395264"/>
                <iidm:step r="0" x="0" g="0" b="0" rho="1.0309277772903442"/>
                <iidm:step r="0" x="0" g="0" b="0" rho="1.0204081535339355"/>
                <iidm:step r="0" x="0" g="0" b="0" rho="1.0101009607315063"/>
                <iidm:step r="0" x="0" g="0" b="0" rho="1"/>
                <iidm:step r="0" x="0" g="0" b="0" rho="0.99009901285171509"/>
                <iidm:step r="0" x="0" g="0" b="0" rho="0.98039215803146362"/>
                <iidm:step r="0" x="0" g="0" b="0" rho="0.97087383270263672"/>
                <iidm:step r="0" x="0" g="0" b="0" rho="0.96153849363327026"/>
                <iidm:step r="0" x="0" g="0" b="0" rho="0.95238101482391357"/>
                <iidm:step r="0" x="0" g="0" b="0" rho="0.94339627027511597"/>
                <iidm:step r="0" x="0" g="0" b="0" rho="0.93457937240600586"/>
                <iidm:step r="0" x="0" g="0" b="0" rho="0.92592591047286987"/>
                <iidm:step r="0" x="0" g="0" b="0" rho="0.91743117570877075"/>
                <iidm:step r="0" x="0" g="0" b="0" rho="0.90909087657928467"/>
                <iidm:step r="0" x="0" g="0" b="0" rho="0.90090090036392212"/>
                <iidm:step r="0" x="0" g="0" b="0" rho="0.8928571343421936"/>
            </iidm:ratioTapChanger>
            <iidm:currentLimits1 permanentLimit="17320.5"/>
            <iidm:currentLimits2 permanentLimit="17320.5"/>
        </iidm:twoWindingsTransformer>
        <iidm:twoWindingsTransformer id="Tr4012-g10" r="0" x="0.04218750074505806" g="0" b="0" ratedU1="400" ratedU2="15" bus1="4012_401" connectableBus1="4012_401" voltageLevelId1="4012_400" bus2="BG10__11" connectableBus2="BG10__11" voltageLevelId2="BG10__15" p1="-630.23826793778017" q1="-260.90985322557725" p2="630.23826793778028" q2="372.78726925679393">
            <iidm:ratioTapChanger lowTapPosition="0" tapPosition="10" loadTapChangingCapabilities="false">
                <iidm:step r="0" x="0" g="0" b="0" rho="1.0526316165924072"/>
                <iidm:step r="0" x="0" g="0" b="0" rho="1.0416667461395264"/>
                <iidm:step r="0" x="0" g="0" b="0" rho="1.0309277772903442"/>
                <iidm:step r="0" x="0" g="0" b="0" rho="1.0204081535339355"/>
                <iidm:step r="0" x="0" g="0" b="0" rho="1.0101009607315063"/>
                <iidm:step r="0" x="0" g="0" b="0" rho="1"/>
                <iidm:step r="0" x="0" g="0" b="0" rho="0.99009901285171509"/>
                <iidm:step r="0" x="0" g="0" b="0" rho="0.98039215803146362"/>
                <iidm:step r="0" x="0" g="0" b="0" rho="0.97087383270263672"/>
                <iidm:step r="0" x="0" g="0" b="0" rho="0.96153849363327026"/>
                <iidm:step r="0" x="0" g="0" b="0" rho="0.95238101482391357"/>
            </iidm:ratioTapChanger>
            <iidm:currentLimits1 permanentLimit="30792"/>
            <iidm:currentLimits2 permanentLimit="30792"/>
        </iidm:twoWindingsTransformer>
    </iidm:substation>
    <iidm:substation id="_3dd84004-1feb-4d62-bf15-4ae3dcc30bc4" country="FR" tso="RTE">
        <iidm:voltageLevel id="1013_130" nominalV="130" highVoltageLimit="136.5" topologyKind="BUS_BREAKER">
            <iidm:busBreakerTopology>
                <iidm:bus id="1013_131" v="126.1184568734532" angle="79.014665001671332"/>
            </iidm:busBreakerTopology>
        </iidm:voltageLevel>
        <iidm:voltageLevel id="B13___20" nominalV="20" highVoltageLimit="21" topologyKind="BUS_BREAKER">
            <iidm:busBreakerTopology>
                <iidm:bus id="B13___21" v="18.162378131275947" angle="74.692456149650141"/>
            </iidm:busBreakerTopology>
            <iidm:load id="13_1" loadType="UNDEFINED" p0="140.00399999999999" q0="48.162399999999998" bus="B13___21" connectableBus="B13___21" p="127.68670478516614" q="40.060705287532635"/>
        </iidm:voltageLevel>
        <iidm:voltageLevel id="BG02__15" nominalV="15" highVoltageLimit="15.750001907348633" topologyKind="BUS_BREAKER">
            <iidm:busBreakerTopology>
                <iidm:bus id="BG02__11" v="14.847465222236366" angle="83.926353604416207"/>
            </iidm:busBreakerTopology>
            <iidm:generator id="g02" energySource="HYDRO" minP="0" maxP="9999" voltageRegulatorOn="true" targetP="300" targetV="15.847498893737793" targetQ="17.233400344848633" bus="BG02__11" connectableBus="BG02__11" p="-328.87617191853707" q="-92.06038849592295">
                <iidm:property name="genreCvg" value="AUTRE"/>
                <iidm:reactiveCapabilityCurve>
                    <iidm:point p="0" minQ="-600" maxQ="600"/>
                    <iidm:point p="9999" minQ="-600" maxQ="600"/>
                </iidm:reactiveCapabilityCurve>
            </iidm:generator>
        </iidm:voltageLevel>
        <iidm:twoWindingsTransformer id="Tr1013-g2" r="0" x="0.056250009685754776" g="0" b="0" ratedU1="130" ratedU2="15" bus1="1013_131" connectableBus1="1013_131" voltageLevelId1="1013_130" bus2="BG02__11" connectableBus2="BG02__11" voltageLevelId2="BG02__15" p1="-328.8761718910817" q1="-62.299522491542646" p2="328.8761718910817" q2="92.060388495923391">
            <iidm:ratioTapChanger lowTapPosition="0" tapPosition="5" loadTapChangingCapabilities="false">
                <iidm:step r="0" x="0" g="0" b="0" rho="1.0526316165924072"/>
                <iidm:step r="0" x="0" g="0" b="0" rho="1.0416667461395264"/>
                <iidm:step r="0" x="0" g="0" b="0" rho="1.0309277772903442"/>
                <iidm:step r="0" x="0" g="0" b="0" rho="1.0204081535339355"/>
                <iidm:step r="0" x="0" g="0" b="0" rho="1.0101009607315063"/>
                <iidm:step r="0" x="0" g="0" b="0" rho="1"/>
                <iidm:step r="0" x="0" g="0" b="0" rho="0.99009901285171509"/>
                <iidm:step r="0" x="0" g="0" b="0" rho="0.98039215803146362"/>
                <iidm:step r="0" x="0" g="0" b="0" rho="0.97087383270263672"/>
                <iidm:step r="0" x="0" g="0" b="0" rho="0.96153849363327026"/>
                <iidm:step r="0" x="0" g="0" b="0" rho="0.95238101482391357"/>
            </iidm:ratioTapChanger>
            <iidm:currentLimits1 permanentLimit="23094"/>
            <iidm:currentLimits2 permanentLimit="23094"/>
        </iidm:twoWindingsTransformer>
        <iidm:twoWindingsTransformer id="Tr13-1013" r="0" x="0.20000006258487701" g="0" b="0" ratedU1="130" ratedU2="20" bus1="1013_131" connectableBus1="1013_131" voltageLevelId1="1013_130" bus2="B13___21" connectableBus2="B13___21" voltageLevelId2="B13___20" p1="127.68670478527117" q1="50.918711661385544" p2="-127.6867047852711" q2="-40.060705277335131">
            <iidm:ratioTapChanger lowTapPosition="0" tapPosition="24" targetDeadband="0" loadTapChangingCapabilities="true" regulating="true" targetV="20">
                <iidm:terminalRef id="Tr13-1013" side="TWO"/>
                <iidm:step r="0" x="0" g="0" b="0" rho="1.25"/>
                <iidm:step r="0" x="0" g="0" b="0" rho="1.2345678806304932"/>
                <iidm:step r="0" x="0" g="0" b="0" rho="1.2195122241973877"/>
                <iidm:step r="0" x="0" g="0" b="0" rho="1.2048193216323853"/>
                <iidm:step r="0" x="0" g="0" b="0" rho="1.1904761791229248"/>
                <iidm:step r="0" x="0" g="0" b="0" rho="1.1764705181121826"/>
                <iidm:step r="0" x="0" g="0" b="0" rho="1.1627906560897827"/>
                <iidm:step r="0" x="0" g="0" b="0" rho="1.1494252681732178"/>
                <iidm:step r="0" x="0" g="0" b="0" rho="1.1363636255264282"/>
                <iidm:step r="0" x="0" g="0" b="0" rho="1.1235954761505127"/>
                <iidm:step r="0" x="0" g="0" b="0" rho="1.1111111640930176"/>
                <iidm:step r="0" x="0" g="0" b="0" rho="1.0989010334014893"/>
                <iidm:step r="0" x="0" g="0" b="0" rho="1.0869565010070801"/>
                <iidm:step r="0" x="0" g="0" b="0" rho="1.0752688646316528"/>
                <iidm:step r="0" x="0" g="0" b="0" rho="1.063829779624939"/>
                <iidm:step r="0" x="0" g="0" b="0" rho="1.0526316165924072"/>
                <iidm:step r="0" x="0" g="0" b="0" rho="1.0416667461395264"/>
                <iidm:step r="0" x="0" g="0" b="0" rho="1.0309277772903442"/>
                <iidm:step r="0" x="0" g="0" b="0" rho="1.0204081535339355"/>
                <iidm:step r="0" x="0" g="0" b="0" rho="1.0101009607315063"/>
                <iidm:step r="0" x="0" g="0" b="0" rho="1"/>
                <iidm:step r="0" x="0" g="0" b="0" rho="0.99009901285171509"/>
                <iidm:step r="0" x="0" g="0" b="0" rho="0.98039215803146362"/>
                <iidm:step r="0" x="0" g="0" b="0" rho="0.97087383270263672"/>
                <iidm:step r="0" x="0" g="0" b="0" rho="0.96153849363327026"/>
                <iidm:step r="0" x="0" g="0" b="0" rho="0.95238101482391357"/>
                <iidm:step r="0" x="0" g="0" b="0" rho="0.94339627027511597"/>
                <iidm:step r="0" x="0" g="0" b="0" rho="0.93457937240600586"/>
                <iidm:step r="0" x="0" g="0" b="0" rho="0.92592591047286987"/>
                <iidm:step r="0" x="0" g="0" b="0" rho="0.91743117570877075"/>
                <iidm:step r="0" x="0" g="0" b="0" rho="0.90909087657928467"/>
                <iidm:step r="0" x="0" g="0" b="0" rho="0.90090090036392212"/>
                <iidm:step r="0" x="0" g="0" b="0" rho="0.8928571343421936"/>
            </iidm:ratioTapChanger>
            <iidm:currentLimits1 permanentLimit="5773.5"/>
            <iidm:currentLimits2 permanentLimit="5773.5"/>
        </iidm:twoWindingsTransformer>
    </iidm:substation>
    <iidm:substation id="_6b684b57-105e-4777-b95c-3f07617803dd" country="FR" tso="RTE">
        <iidm:voltageLevel id="1014_130" nominalV="130" highVoltageLimit="136.5" topologyKind="BUS_BREAKER">
            <iidm:busBreakerTopology>
                <iidm:bus id="1014_131" v="127.60114197201631" angle="82.656738758702062"/>
            </iidm:busBreakerTopology>
        </iidm:voltageLevel>
        <iidm:voltageLevel id="BG03__15" nominalV="15" highVoltageLimit="15.750001907348633" topologyKind="BUS_BREAKER">
            <iidm:busBreakerTopology>
                <iidm:bus id="BG03__11" v="14.898143446115714" angle="90.022716099725557"/>
            </iidm:busBreakerTopology>
            <iidm:generator id="g03" energySource="HYDRO" minP="0" maxP="9999" voltageRegulatorOn="true" targetP="550" targetV="15.892499923706055" targetQ="20.913200378417969" bus="BG03__11" connectableBus="BG03__11" p="-583.26959209511426" q="-91.599001149837363">
                <iidm:property name="genreCvg" value="AUTRE"/>
                <iidm:reactiveCapabilityCurve>
                    <iidm:point p="0" minQ="-700" maxQ="700"/>
                    <iidm:point p="9999" minQ="-700" maxQ="700"/>
                </iidm:reactiveCapabilityCurve>
            </iidm:generator>
        </iidm:voltageLevel>
        <iidm:twoWindingsTransformer id="Tr1014-g3" r="0" x="0.048214320093393326" g="0" b="0" ratedU1="130" ratedU2="15" bus1="1014_131" connectableBus1="1014_131" voltageLevelId1="1014_130" bus2="BG03__11" connectableBus2="BG03__11" voltageLevelId2="BG03__15" p1="-583.26959207466257" q1="-15.875376355385118" p2="583.26959207466246" q2="91.599001149837633">
            <iidm:ratioTapChanger lowTapPosition="0" tapPosition="5" loadTapChangingCapabilities="false">
                <iidm:step r="0" x="0" g="0" b="0" rho="1.0526316165924072"/>
                <iidm:step r="0" x="0" g="0" b="0" rho="1.0416667461395264"/>
                <iidm:step r="0" x="0" g="0" b="0" rho="1.0309277772903442"/>
                <iidm:step r="0" x="0" g="0" b="0" rho="1.0204081535339355"/>
                <iidm:step r="0" x="0" g="0" b="0" rho="1.0101009607315063"/>
                <iidm:step r="0" x="0" g="0" b="0" rho="1"/>
                <iidm:step r="0" x="0" g="0" b="0" rho="0.99009901285171509"/>
                <iidm:step r="0" x="0" g="0" b="0" rho="0.98039215803146362"/>
                <iidm:step r="0" x="0" g="0" b="0" rho="0.97087383270263672"/>
                <iidm:step r="0" x="0" g="0" b="0" rho="0.96153849363327026"/>
                <iidm:step r="0" x="0" g="0" b="0" rho="0.95238101482391357"/>
            </iidm:ratioTapChanger>
            <iidm:currentLimits1 permanentLimit="26943"/>
            <iidm:currentLimits2 permanentLimit="26943"/>
        </iidm:twoWindingsTransformer>
    </iidm:substation>
    <iidm:substation id="_aa90c941-14e3-4c16-8ed4-513a0206d631" country="FR" tso="RTE">
        <iidm:voltageLevel id="1021_130" nominalV="130" highVoltageLimit="136.5" topologyKind="BUS_BREAKER">
            <iidm:busBreakerTopology>
                <iidm:bus id="1021_131" v="114.23085186262809" angle="92.12457612606994"/>
            </iidm:busBreakerTopology>
        </iidm:voltageLevel>
        <iidm:voltageLevel id="BG04__15" nominalV="15" highVoltageLimit="15.750001907348633" topologyKind="BUS_BREAKER">
            <iidm:busBreakerTopology>
                <iidm:bus id="BG04__11" v="13.602090719518921" angle="99.905940000021388"/>
            </iidm:busBreakerTopology>
            <iidm:generator id="g04" energySource="HYDRO" minP="0" maxP="9999" voltageRegulatorOn="true" targetP="400" targetV="15.508500099182129" targetQ="30.375099182128906" bus="BG04__11" connectableBus="BG04__11" p="-431.53060554903834" q="-131.29935258526214">
                <iidm:property name="genreCvg" value="AUTRE"/>
                <iidm:reactiveCapabilityCurve>
                    <iidm:point p="0" minQ="-600" maxQ="600"/>
                    <iidm:point p="9999" minQ="-600" maxQ="600"/>
                </iidm:reactiveCapabilityCurve>
            </iidm:generator>
        </iidm:voltageLevel>
        <iidm:twoWindingsTransformer id="Tr1021-g4" r="0" x="0.056250009685754776" g="0" b="0" ratedU1="130" ratedU2="15" bus1="1021_131" connectableBus1="1021_131" voltageLevelId1="1021_130" bus2="BG04__11" connectableBus2="BG04__11" voltageLevelId2="BG04__15" p1="-431.53060549821839" q1="-69.442697725837647" p2="431.53060549821845" q2="131.29935258526206">
            <iidm:ratioTapChanger lowTapPosition="0" tapPosition="5" loadTapChangingCapabilities="false">
                <iidm:step r="0" x="0" g="0" b="0" rho="1.0526316165924072"/>
                <iidm:step r="0" x="0" g="0" b="0" rho="1.0416667461395264"/>
                <iidm:step r="0" x="0" g="0" b="0" rho="1.0309277772903442"/>
                <iidm:step r="0" x="0" g="0" b="0" rho="1.0204081535339355"/>
                <iidm:step r="0" x="0" g="0" b="0" rho="1.0101009607315063"/>
                <iidm:step r="0" x="0" g="0" b="0" rho="1"/>
                <iidm:step r="0" x="0" g="0" b="0" rho="0.99009901285171509"/>
                <iidm:step r="0" x="0" g="0" b="0" rho="0.98039215803146362"/>
                <iidm:step r="0" x="0" g="0" b="0" rho="0.97087383270263672"/>
                <iidm:step r="0" x="0" g="0" b="0" rho="0.96153849363327026"/>
                <iidm:step r="0" x="0" g="0" b="0" rho="0.95238101482391357"/>
            </iidm:ratioTapChanger>
            <iidm:currentLimits1 permanentLimit="23094"/>
            <iidm:currentLimits2 permanentLimit="23094"/>
        </iidm:twoWindingsTransformer>
    </iidm:substation>
    <iidm:substation id="_324bf35a-84bb-4d14-b005-bbaaef147928" country="FR" tso="RTE">
        <iidm:voltageLevel id="1022_130" nominalV="130" highVoltageLimit="136.5" topologyKind="BUS_BREAKER">
            <iidm:busBreakerTopology>
                <iidm:bus id="1022_131" v="112.77262272928314" angle="58.620350873159929"/>
            </iidm:busBreakerTopology>
            <iidm:shunt id="1022-Cap" sectionCount="1" voltageRegulatorOn="false" bus="1022_131" connectableBus="1022_131" q="-37.626226636274261">
                <iidm:property name="qMax" value="50"/>
                <iidm:shuntLinearModel bPerSection="0.002958579920232296" maximumSectionCount="1"/>
            </iidm:shunt>
        </iidm:voltageLevel>
        <iidm:voltageLevel id="4022_400" nominalV="400" highVoltageLimit="420" topologyKind="BUS_BREAKER">
            <iidm:busBreakerTopology>
                <iidm:bus id="4022_401" v="327.65054525280755" angle="56.152180859160275"/>
            </iidm:busBreakerTopology>
        </iidm:voltageLevel>
        <iidm:voltageLevel id="B22___20" nominalV="20" highVoltageLimit="21" topologyKind="BUS_BREAKER">
            <iidm:busBreakerTopology>
                <iidm:bus id="B22___21" v="16.294272273431243" angle="53.7829382100903"/>
            </iidm:busBreakerTopology>
            <iidm:load id="22_1" loadType="UNDEFINED" p0="392.017" q0="111.87" bus="B22___21" connectableBus="B22___21" p="320.9178408045521" q="74.97069890288472"/>
        </iidm:voltageLevel>
        <iidm:voltageLevel id="BG05__15" nominalV="15" highVoltageLimit="15.750001907348633" topologyKind="BUS_BREAKER">
            <iidm:busBreakerTopology>
                <iidm:bus id="BG05__11" v="14.197498431363945" angle="67.481210845272912"/>
            </iidm:busBreakerTopology>
            <iidm:generator id="g05" energySource="HYDRO" minP="0" maxP="9999" voltageRegulatorOn="true" targetP="200" targetV="15.440999984741211" targetQ="60.0614013671875" bus="BG05__11" connectableBus="BG05__11" p="-200.75249625129126" q="-205.36974528772558">
                <iidm:property name="genreCvg" value="AUTRE"/>
                <iidm:reactiveCapabilityCurve>
                    <iidm:point p="0" minQ="-250" maxQ="250"/>
                    <iidm:point p="9999" minQ="-250" maxQ="250"/>
                </iidm:reactiveCapabilityCurve>
            </iidm:generator>
        </iidm:voltageLevel>
        <iidm:twoWindingsTransformer id="Tr1022-4022" r="0" x="2.0280842781066895" g="0" b="0" ratedU1="400" ratedU2="130" bus1="4022_401" connectableBus1="4022_401" voltageLevelId1="4022_400" bus2="1022_131" connectableBus2="1022_131" voltageLevelId2="1022_130" p1="-274.1871648734766" q1="103.51774579420487" p2="274.18716487347632" q2="-90.230687881160748">
            <iidm:ratioTapChanger lowTapPosition="0" tapPosition="3" loadTapChangingCapabilities="false">
                <iidm:step r="0" x="0" g="0" b="0" rho="1.1111111640930176"/>
                <iidm:step r="0" x="0" g="0" b="0" rho="1.0989010334014893"/>
                <iidm:step r="0" x="0" g="0" b="0" rho="1.0869565010070801"/>
                <iidm:step r="0" x="0" g="0" b="0" rho="1.0752688646316528"/>
                <iidm:step r="0" x="0" g="0" b="0" rho="1.063829779624939"/>
                <iidm:step r="0" x="0" g="0" b="0" rho="1.0526316165924072"/>
                <iidm:step r="0" x="0" g="0" b="0" rho="1.0416667461395264"/>
                <iidm:step r="0" x="0" g="0" b="0" rho="1.0309277772903442"/>
                <iidm:step r="0" x="0" g="0" b="0" rho="1.0204081535339355"/>
                <iidm:step r="0" x="0" g="0" b="0" rho="1.0101009607315063"/>
                <iidm:step r="0" x="0" g="0" b="0" rho="1"/>
                <iidm:step r="0" x="0" g="0" b="0" rho="0.99009901285171509"/>
                <iidm:step r="0" x="0" g="0" b="0" rho="0.98039215803146362"/>
                <iidm:step r="0" x="0" g="0" b="0" rho="0.97087383270263672"/>
                <iidm:step r="0" x="0" g="0" b="0" rho="0.96153849363327026"/>
                <iidm:step r="0" x="0" g="0" b="0" rho="0.95238101482391357"/>
                <iidm:step r="0" x="0" g="0" b="0" rho="0.94339627027511597"/>
                <iidm:step r="0" x="0" g="0" b="0" rho="0.93457937240600586"/>
                <iidm:step r="0" x="0" g="0" b="0" rho="0.92592591047286987"/>
                <iidm:step r="0" x="0" g="0" b="0" rho="0.91743117570877075"/>
                <iidm:step r="0" x="0" g="0" b="0" rho="0.90909087657928467"/>
            </iidm:ratioTapChanger>
            <iidm:currentLimits1 permanentLimit="3700.820068359375"/>
            <iidm:currentLimits2 permanentLimit="3700.820068359375"/>
        </iidm:twoWindingsTransformer>
        <iidm:twoWindingsTransformer id="Tr1022-g5" r="0" x="0.13500003516674042" g="0" b="0" ratedU1="130" ratedU2="15" bus1="1022_131" connectableBus1="1022_131" voltageLevelId1="1022_130" bus2="BG05__11" connectableBus2="BG05__11" voltageLevelId2="BG05__15" p1="-200.75249627419058" q1="-150.13022375378858" p2="200.75249627419058" q2="205.36974528772544">
            <iidm:ratioTapChanger lowTapPosition="0" tapPosition="10" loadTapChangingCapabilities="false">
                <iidm:step r="0" x="0" g="0" b="0" rho="1.0526316165924072"/>
                <iidm:step r="0" x="0" g="0" b="0" rho="1.0416667461395264"/>
                <iidm:step r="0" x="0" g="0" b="0" rho="1.0309277772903442"/>
                <iidm:step r="0" x="0" g="0" b="0" rho="1.0204081535339355"/>
                <iidm:step r="0" x="0" g="0" b="0" rho="1.0101009607315063"/>
                <iidm:step r="0" x="0" g="0" b="0" rho="1"/>
                <iidm:step r="0" x="0" g="0" b="0" rho="0.99009901285171509"/>
                <iidm:step r="0" x="0" g="0" b="0" rho="0.98039215803146362"/>
                <iidm:step r="0" x="0" g="0" b="0" rho="0.97087383270263672"/>
                <iidm:step r="0" x="0" g="0" b="0" rho="0.96153849363327026"/>
                <iidm:step r="0" x="0" g="0" b="0" rho="0.95238101482391357"/>
            </iidm:ratioTapChanger>
            <iidm:currentLimits1 permanentLimit="9622.5"/>
            <iidm:currentLimits2 permanentLimit="9622.5"/>
        </iidm:twoWindingsTransformer>
        <iidm:twoWindingsTransformer id="Tr22-1022" r="0" x="0.071428664028644562" g="0" b="0" ratedU1="130" ratedU2="20" bus1="1022_131" connectableBus1="1022_131" voltageLevelId1="1022_130" bus2="B22___21" connectableBus2="B22___21" voltageLevelId2="B22___20" p1="320.9178437167389" q1="104.18986108156338" p2="-320.91784371673884" q2="-74.970691269602057">
            <iidm:ratioTapChanger lowTapPosition="0" tapPosition="24" targetDeadband="0" loadTapChangingCapabilities="true" regulating="true" targetV="20">
                <iidm:terminalRef id="Tr22-1022" side="TWO"/>
                <iidm:step r="0" x="0" g="0" b="0" rho="1.25"/>
                <iidm:step r="0" x="0" g="0" b="0" rho="1.2345678806304932"/>
                <iidm:step r="0" x="0" g="0" b="0" rho="1.2195122241973877"/>
                <iidm:step r="0" x="0" g="0" b="0" rho="1.2048193216323853"/>
                <iidm:step r="0" x="0" g="0" b="0" rho="1.1904761791229248"/>
                <iidm:step r="0" x="0" g="0" b="0" rho="1.1764705181121826"/>
                <iidm:step r="0" x="0" g="0" b="0" rho="1.1627906560897827"/>
                <iidm:step r="0" x="0" g="0" b="0" rho="1.1494252681732178"/>
                <iidm:step r="0" x="0" g="0" b="0" rho="1.1363636255264282"/>
                <iidm:step r="0" x="0" g="0" b="0" rho="1.1235954761505127"/>
                <iidm:step r="0" x="0" g="0" b="0" rho="1.1111111640930176"/>
                <iidm:step r="0" x="0" g="0" b="0" rho="1.0989010334014893"/>
                <iidm:step r="0" x="0" g="0" b="0" rho="1.0869565010070801"/>
                <iidm:step r="0" x="0" g="0" b="0" rho="1.0752688646316528"/>
                <iidm:step r="0" x="0" g="0" b="0" rho="1.063829779624939"/>
                <iidm:step r="0" x="0" g="0" b="0" rho="1.0526316165924072"/>
                <iidm:step r="0" x="0" g="0" b="0" rho="1.0416667461395264"/>
                <iidm:step r="0" x="0" g="0" b="0" rho="1.0309277772903442"/>
                <iidm:step r="0" x="0" g="0" b="0" rho="1.0204081535339355"/>
                <iidm:step r="0" x="0" g="0" b="0" rho="1.0101009607315063"/>
                <iidm:step r="0" x="0" g="0" b="0" rho="1"/>
                <iidm:step r="0" x="0" g="0" b="0" rho="0.99009901285171509"/>
                <iidm:step r="0" x="0" g="0" b="0" rho="0.98039215803146362"/>
                <iidm:step r="0" x="0" g="0" b="0" rho="0.97087383270263672"/>
                <iidm:step r="0" x="0" g="0" b="0" rho="0.96153849363327026"/>
                <iidm:step r="0" x="0" g="0" b="0" rho="0.95238101482391357"/>
                <iidm:step r="0" x="0" g="0" b="0" rho="0.94339627027511597"/>
                <iidm:step r="0" x="0" g="0" b="0" rho="0.93457937240600586"/>
                <iidm:step r="0" x="0" g="0" b="0" rho="0.92592591047286987"/>
                <iidm:step r="0" x="0" g="0" b="0" rho="0.91743117570877075"/>
                <iidm:step r="0" x="0" g="0" b="0" rho="0.90909087657928467"/>
                <iidm:step r="0" x="0" g="0" b="0" rho="0.90090090036392212"/>
                <iidm:step r="0" x="0" g="0" b="0" rho="0.8928571343421936"/>
            </iidm:ratioTapChanger>
            <iidm:currentLimits1 permanentLimit="16165.7998046875"/>
            <iidm:currentLimits2 permanentLimit="16165.7998046875"/>
        </iidm:twoWindingsTransformer>
    </iidm:substation>
    <iidm:substation id="_22d093c3-f6da-43b4-9b8d-c13a0e2906eb" country="FR" tso="RTE">
        <iidm:voltageLevel id="1041_130" nominalV="130" highVoltageLimit="136.5" topologyKind="BUS_BREAKER">
            <iidm:busBreakerTopology>
                <iidm:bus id="1041_131" v="73.216398455129948" angle="-52.371436410304185"/>
            </iidm:busBreakerTopology>
            <iidm:shunt id="1041-Cap" sectionCount="1" voltageRegulatorOn="false" bus="1041_131" connectableBus="1041_131" q="-79.299429143893647">
                <iidm:property name="qMax" value="250"/>
                <iidm:shuntLinearModel bPerSection="0.014792900532484055" maximumSectionCount="1"/>
            </iidm:shunt>
        </iidm:voltageLevel>
        <iidm:voltageLevel id="B01___20" nominalV="20" highVoltageLimit="21" topologyKind="BUS_BREAKER">
            <iidm:busBreakerTopology>
                <iidm:bus id="B01___21" v="10.986122062501593" angle="-59.519429353017976"/>
            </iidm:busBreakerTopology>
            <iidm:load id="01_1" loadType="UNDEFINED" p0="840" q0="207.47999999999999" bus="B01___21" connectableBus="B01___21" p="461.94706066826245" q="62.748317207656775"/>
        </iidm:voltageLevel>
        <iidm:twoWindingsTransformer id="Tr1-1041" r="0" x="0.03333326056599617" g="0" b="0" ratedU1="130" ratedU2="20" bus1="1041_131" connectableBus1="1041_131" voltageLevelId1="1041_130" bus2="B01___21" connectableBus2="B01___21" voltageLevelId2="B01___20" p1="461.95105286449456" q1="122.77496128948731" p2="-461.95105286449456" q2="-62.7514141909163">
            <iidm:ratioTapChanger lowTapPosition="0" tapPosition="20" targetDeadband="0" loadTapChangingCapabilities="true" regulating="true" targetV="20">
                <iidm:terminalRef id="Tr1-1041" side="TWO"/>
                <iidm:step r="0" x="0" g="0" b="0" rho="1.25"/>
                <iidm:step r="0" x="0" g="0" b="0" rho="1.2345678806304932"/>
                <iidm:step r="0" x="0" g="0" b="0" rho="1.2195122241973877"/>
                <iidm:step r="0" x="0" g="0" b="0" rho="1.2048193216323853"/>
                <iidm:step r="0" x="0" g="0" b="0" rho="1.1904761791229248"/>
                <iidm:step r="0" x="0" g="0" b="0" rho="1.1764705181121826"/>
                <iidm:step r="0" x="0" g="0" b="0" rho="1.1627906560897827"/>
                <iidm:step r="0" x="0" g="0" b="0" rho="1.1494252681732178"/>
                <iidm:step r="0" x="0" g="0" b="0" rho="1.1363636255264282"/>
                <iidm:step r="0" x="0" g="0" b="0" rho="1.1235954761505127"/>
                <iidm:step r="0" x="0" g="0" b="0" rho="1.1111111640930176"/>
                <iidm:step r="0" x="0" g="0" b="0" rho="1.0989010334014893"/>
                <iidm:step r="0" x="0" g="0" b="0" rho="1.0869565010070801"/>
                <iidm:step r="0" x="0" g="0" b="0" rho="1.0752688646316528"/>
                <iidm:step r="0" x="0" g="0" b="0" rho="1.063829779624939"/>
                <iidm:step r="0" x="0" g="0" b="0" rho="1.0526316165924072"/>
                <iidm:step r="0" x="0" g="0" b="0" rho="1.0416667461395264"/>
                <iidm:step r="0" x="0" g="0" b="0" rho="1.0309277772903442"/>
                <iidm:step r="0" x="0" g="0" b="0" rho="1.0204081535339355"/>
                <iidm:step r="0" x="0" g="0" b="0" rho="1.0101009607315063"/>
                <iidm:step r="0" x="0" g="0" b="0" rho="1"/>
                <iidm:step r="0" x="0" g="0" b="0" rho="0.99009901285171509"/>
                <iidm:step r="0" x="0" g="0" b="0" rho="0.98039215803146362"/>
                <iidm:step r="0" x="0" g="0" b="0" rho="0.97087383270263672"/>
                <iidm:step r="0" x="0" g="0" b="0" rho="0.96153849363327026"/>
                <iidm:step r="0" x="0" g="0" b="0" rho="0.95238101482391357"/>
                <iidm:step r="0" x="0" g="0" b="0" rho="0.94339627027511597"/>
                <iidm:step r="0" x="0" g="0" b="0" rho="0.93457937240600586"/>
                <iidm:step r="0" x="0" g="0" b="0" rho="0.92592591047286987"/>
                <iidm:step r="0" x="0" g="0" b="0" rho="0.91743117570877075"/>
                <iidm:step r="0" x="0" g="0" b="0" rho="0.90909087657928467"/>
                <iidm:step r="0" x="0" g="0" b="0" rho="0.90090090036392212"/>
                <iidm:step r="0" x="0" g="0" b="0" rho="0.8928571343421936"/>
            </iidm:ratioTapChanger>
            <iidm:currentLimits1 permanentLimit="34641"/>
            <iidm:currentLimits2 permanentLimit="34641"/>
        </iidm:twoWindingsTransformer>
    </iidm:substation>
    <iidm:substation id="_1a6fe4b6-a0fc-47fa-8946-62398ab9ae75" country="FR" tso="RTE">
        <iidm:voltageLevel id="1042_130" nominalV="130" highVoltageLimit="136.5" topologyKind="BUS_BREAKER">
            <iidm:busBreakerTopology>
                <iidm:bus id="1042_131" v="102.9654438705241" angle="-23.295804456861553"/>
            </iidm:busBreakerTopology>
        </iidm:voltageLevel>
        <iidm:voltageLevel id="B02___20" nominalV="20" highVoltageLimit="21" topologyKind="BUS_BREAKER">
            <iidm:busBreakerTopology>
                <iidm:bus id="B02___21" v="15.509639648708573" angle="-28.868168079339348"/>
            </iidm:busBreakerTopology>
            <iidm:load id="02_1" loadType="UNDEFINED" p0="462.036" q0="99.415800000000004" bus="B02___21" connectableBus="B02___21" p="357.85096569660982" q="59.635953574321164"/>
        </iidm:voltageLevel>
        <iidm:voltageLevel id="BG06__15" nominalV="15" highVoltageLimit="15.750001907348633" topologyKind="BUS_BREAKER">
            <iidm:busBreakerTopology>
                <iidm:bus id="BG06__11" v="13.289548444621625" angle="-10.121707384689953"/>
            </iidm:busBreakerTopology>
            <iidm:generator id="g06" energySource="THERMAL" minP="0" maxP="9999" voltageRegulatorOn="true" targetP="360" targetV="15.126001358032227" targetQ="138.60000610351562" bus="BG06__11" connectableBus="BG06__11" p="-406.17314145082401" q="-357.92365019792743">
                <iidm:property name="genreCvg" value="AUTRE"/>
                <iidm:reactiveCapabilityCurve>
                    <iidm:point p="0" minQ="-400" maxQ="400"/>
                    <iidm:point p="9999" minQ="-400" maxQ="400"/>
                </iidm:reactiveCapabilityCurve>
            </iidm:generator>
        </iidm:voltageLevel>
        <iidm:twoWindingsTransformer id="Tr1042-g6" r="0" x="0.084375016391277313" g="0" b="0" ratedU1="130" ratedU2="15" bus1="1042_131" connectableBus1="1042_131" voltageLevelId1="1042_130" bus2="BG06__11" connectableBus2="BG06__11" voltageLevelId2="BG06__15" p1="-406.17314145082395" q1="-217.90417816916187" p2="406.17314145082401" q2="357.9236501979276">
            <iidm:ratioTapChanger lowTapPosition="0" tapPosition="10" loadTapChangingCapabilities="false">
                <iidm:step r="0" x="0" g="0" b="0" rho="1.0526316165924072"/>
                <iidm:step r="0" x="0" g="0" b="0" rho="1.0416667461395264"/>
                <iidm:step r="0" x="0" g="0" b="0" rho="1.0309277772903442"/>
                <iidm:step r="0" x="0" g="0" b="0" rho="1.0204081535339355"/>
                <iidm:step r="0" x="0" g="0" b="0" rho="1.0101009607315063"/>
                <iidm:step r="0" x="0" g="0" b="0" rho="1"/>
                <iidm:step r="0" x="0" g="0" b="0" rho="0.99009901285171509"/>
                <iidm:step r="0" x="0" g="0" b="0" rho="0.98039215803146362"/>
                <iidm:step r="0" x="0" g="0" b="0" rho="0.97087383270263672"/>
                <iidm:step r="0" x="0" g="0" b="0" rho="0.96153849363327026"/>
                <iidm:step r="0" x="0" g="0" b="0" rho="0.95238101482391357"/>
            </iidm:ratioTapChanger>
            <iidm:currentLimits1 permanentLimit="15395.9990234375"/>
            <iidm:currentLimits2 permanentLimit="15395.9990234375"/>
        </iidm:twoWindingsTransformer>
        <iidm:twoWindingsTransformer id="Tr2-1042" r="0" x="0.066666767001152039" g="0" b="0" ratedU1="130" ratedU2="20" bus1="1042_131" connectableBus1="1042_131" voltageLevelId1="1042_130" bus2="B02___21" connectableBus2="B02___21" voltageLevelId2="B02___20" p1="357.85114023410682" q1="96.111987398497803" p2="-357.85114023410677" q2="-59.635947039071866">
            <iidm:ratioTapChanger lowTapPosition="0" tapPosition="20" targetDeadband="0" loadTapChangingCapabilities="true" regulating="true" targetV="20">
                <iidm:terminalRef id="Tr2-1042" side="TWO"/>
                <iidm:step r="0" x="0" g="0" b="0" rho="1.25"/>
                <iidm:step r="0" x="0" g="0" b="0" rho="1.2345678806304932"/>
                <iidm:step r="0" x="0" g="0" b="0" rho="1.2195122241973877"/>
                <iidm:step r="0" x="0" g="0" b="0" rho="1.2048193216323853"/>
                <iidm:step r="0" x="0" g="0" b="0" rho="1.1904761791229248"/>
                <iidm:step r="0" x="0" g="0" b="0" rho="1.1764705181121826"/>
                <iidm:step r="0" x="0" g="0" b="0" rho="1.1627906560897827"/>
                <iidm:step r="0" x="0" g="0" b="0" rho="1.1494252681732178"/>
                <iidm:step r="0" x="0" g="0" b="0" rho="1.1363636255264282"/>
                <iidm:step r="0" x="0" g="0" b="0" rho="1.1235954761505127"/>
                <iidm:step r="0" x="0" g="0" b="0" rho="1.1111111640930176"/>
                <iidm:step r="0" x="0" g="0" b="0" rho="1.0989010334014893"/>
                <iidm:step r="0" x="0" g="0" b="0" rho="1.0869565010070801"/>
                <iidm:step r="0" x="0" g="0" b="0" rho="1.0752688646316528"/>
                <iidm:step r="0" x="0" g="0" b="0" rho="1.063829779624939"/>
                <iidm:step r="0" x="0" g="0" b="0" rho="1.0526316165924072"/>
                <iidm:step r="0" x="0" g="0" b="0" rho="1.0416667461395264"/>
                <iidm:step r="0" x="0" g="0" b="0" rho="1.0309277772903442"/>
                <iidm:step r="0" x="0" g="0" b="0" rho="1.0204081535339355"/>
                <iidm:step r="0" x="0" g="0" b="0" rho="1.0101009607315063"/>
                <iidm:step r="0" x="0" g="0" b="0" rho="1"/>
                <iidm:step r="0" x="0" g="0" b="0" rho="0.99009901285171509"/>
                <iidm:step r="0" x="0" g="0" b="0" rho="0.98039215803146362"/>
                <iidm:step r="0" x="0" g="0" b="0" rho="0.97087383270263672"/>
                <iidm:step r="0" x="0" g="0" b="0" rho="0.96153849363327026"/>
                <iidm:step r="0" x="0" g="0" b="0" rho="0.95238101482391357"/>
                <iidm:step r="0" x="0" g="0" b="0" rho="0.94339627027511597"/>
                <iidm:step r="0" x="0" g="0" b="0" rho="0.93457937240600586"/>
                <iidm:step r="0" x="0" g="0" b="0" rho="0.92592591047286987"/>
                <iidm:step r="0" x="0" g="0" b="0" rho="0.91743117570877075"/>
                <iidm:step r="0" x="0" g="0" b="0" rho="0.90909087657928467"/>
                <iidm:step r="0" x="0" g="0" b="0" rho="0.90090090036392212"/>
                <iidm:step r="0" x="0" g="0" b="0" rho="0.8928571343421936"/>
            </iidm:ratioTapChanger>
            <iidm:currentLimits1 permanentLimit="17320.5"/>
            <iidm:currentLimits2 permanentLimit="17320.5"/>
        </iidm:twoWindingsTransformer>
    </iidm:substation>
    <iidm:substation id="_24b8bbc5-1f71-4d9f-a22f-2c1a9dc6b44b" country="FR" tso="RTE">
        <iidm:voltageLevel id="1043_130" nominalV="130" highVoltageLimit="136.5" topologyKind="BUS_BREAKER">
            <iidm:busBreakerTopology>
                <iidm:bus id="1043_131" v="80.932376825427127" angle="-40.563765069185941"/>
            </iidm:busBreakerTopology>
            <iidm:shunt id="1043-Cap" sectionCount="1" voltageRegulatorOn="false" bus="1043_131" connectableBus="1043_131" q="-77.515253008223155">
                <iidm:property name="qMax" value="200"/>
                <iidm:shuntLinearModel bPerSection="0.011834300123155117" maximumSectionCount="1"/>
            </iidm:shunt>
        </iidm:voltageLevel>
        <iidm:voltageLevel id="B03___20" nominalV="20" highVoltageLimit="21" topologyKind="BUS_BREAKER">
            <iidm:busBreakerTopology>
                <iidm:bus id="B03___21" v="11.919612979020345" angle="-47.958511320401023"/>
            </iidm:busBreakerTopology>
            <iidm:load id="03_1" loadType="UNDEFINED" p0="364" q0="117.379" bus="B03___21" connectableBus="B03___21" p="217.49025612895366" q="41.905135318455756"/>
        </iidm:voltageLevel>
        <iidm:voltageLevel id="BG07__15" nominalV="15" highVoltageLimit="15.750001907348633" topologyKind="BUS_BREAKER">
            <iidm:busBreakerTopology>
                <iidm:bus id="BG07__11" v="12.50768917993455" angle="-22.070660304856439"/>
            </iidm:busBreakerTopology>
            <iidm:generator id="g07" energySource="THERMAL" minP="0" maxP="9999" voltageRegulatorOn="true" targetP="180" targetV="15.211499214172363" targetQ="60.400001525878906" bus="BG07__11" connectableBus="BG07__11" p="-209.09052647695381" q="-301.90950770838094">
                <iidm:property name="genreCvg" value="AUTRE"/>
                <iidm:reactiveCapabilityCurve>
                    <iidm:point p="0" minQ="-200" maxQ="200"/>
                    <iidm:point p="9999" minQ="-200" maxQ="200"/>
                </iidm:reactiveCapabilityCurve>
            </iidm:generator>
        </iidm:voltageLevel>
        <iidm:twoWindingsTransformer id="Tr1043-g7" r="0" x="0.16875003278255463" g="0" b="0" ratedU1="130" ratedU2="15" bus1="1043_131" connectableBus1="1043_131" voltageLevelId1="1043_130" bus2="BG07__11" connectableBus2="BG07__11" voltageLevelId2="BG07__15" p1="-209.09052647695376" q1="-156.43085726710402" p2="209.09052647695381" q2="301.90950770838094">
            <iidm:ratioTapChanger lowTapPosition="0" tapPosition="10" loadTapChangingCapabilities="false">
                <iidm:step r="0" x="0" g="0" b="0" rho="1.0526316165924072"/>
                <iidm:step r="0" x="0" g="0" b="0" rho="1.0416667461395264"/>
                <iidm:step r="0" x="0" g="0" b="0" rho="1.0309277772903442"/>
                <iidm:step r="0" x="0" g="0" b="0" rho="1.0204081535339355"/>
                <iidm:step r="0" x="0" g="0" b="0" rho="1.0101009607315063"/>
                <iidm:step r="0" x="0" g="0" b="0" rho="1"/>
                <iidm:step r="0" x="0" g="0" b="0" rho="0.99009901285171509"/>
                <iidm:step r="0" x="0" g="0" b="0" rho="0.98039215803146362"/>
                <iidm:step r="0" x="0" g="0" b="0" rho="0.97087383270263672"/>
                <iidm:step r="0" x="0" g="0" b="0" rho="0.96153849363327026"/>
                <iidm:step r="0" x="0" g="0" b="0" rho="0.95238101482391357"/>
            </iidm:ratioTapChanger>
            <iidm:currentLimits1 permanentLimit="7697.99951171875"/>
            <iidm:currentLimits2 permanentLimit="7697.99951171875"/>
        </iidm:twoWindingsTransformer>
        <iidm:twoWindingsTransformer id="Tr3-1043" r="0" x="0.08695647120475769" g="0" b="0" ratedU1="130" ratedU2="20" bus1="1043_131" connectableBus1="1043_131" voltageLevelId1="1043_130" bus2="B03___21" connectableBus2="B03___21" voltageLevelId2="B03___20" p1="217.49140555867709" q1="71.931366455397068" p2="-217.49140555867729" q2="-41.905694357485245">
            <iidm:ratioTapChanger lowTapPosition="0" tapPosition="21" targetDeadband="0" loadTapChangingCapabilities="true" regulating="true" targetV="20">
                <iidm:terminalRef id="Tr3-1043" side="TWO"/>
                <iidm:step r="0" x="0" g="0" b="0" rho="1.25"/>
                <iidm:step r="0" x="0" g="0" b="0" rho="1.2345678806304932"/>
                <iidm:step r="0" x="0" g="0" b="0" rho="1.2195122241973877"/>
                <iidm:step r="0" x="0" g="0" b="0" rho="1.2048193216323853"/>
                <iidm:step r="0" x="0" g="0" b="0" rho="1.1904761791229248"/>
                <iidm:step r="0" x="0" g="0" b="0" rho="1.1764705181121826"/>
                <iidm:step r="0" x="0" g="0" b="0" rho="1.1627906560897827"/>
                <iidm:step r="0" x="0" g="0" b="0" rho="1.1494252681732178"/>
                <iidm:step r="0" x="0" g="0" b="0" rho="1.1363636255264282"/>
                <iidm:step r="0" x="0" g="0" b="0" rho="1.1235954761505127"/>
                <iidm:step r="0" x="0" g="0" b="0" rho="1.1111111640930176"/>
                <iidm:step r="0" x="0" g="0" b="0" rho="1.0989010334014893"/>
                <iidm:step r="0" x="0" g="0" b="0" rho="1.0869565010070801"/>
                <iidm:step r="0" x="0" g="0" b="0" rho="1.0752688646316528"/>
                <iidm:step r="0" x="0" g="0" b="0" rho="1.063829779624939"/>
                <iidm:step r="0" x="0" g="0" b="0" rho="1.0526316165924072"/>
                <iidm:step r="0" x="0" g="0" b="0" rho="1.0416667461395264"/>
                <iidm:step r="0" x="0" g="0" b="0" rho="1.0309277772903442"/>
                <iidm:step r="0" x="0" g="0" b="0" rho="1.0204081535339355"/>
                <iidm:step r="0" x="0" g="0" b="0" rho="1.0101009607315063"/>
                <iidm:step r="0" x="0" g="0" b="0" rho="1"/>
                <iidm:step r="0" x="0" g="0" b="0" rho="0.99009901285171509"/>
                <iidm:step r="0" x="0" g="0" b="0" rho="0.98039215803146362"/>
                <iidm:step r="0" x="0" g="0" b="0" rho="0.97087383270263672"/>
                <iidm:step r="0" x="0" g="0" b="0" rho="0.96153849363327026"/>
                <iidm:step r="0" x="0" g="0" b="0" rho="0.95238101482391357"/>
                <iidm:step r="0" x="0" g="0" b="0" rho="0.94339627027511597"/>
                <iidm:step r="0" x="0" g="0" b="0" rho="0.93457937240600586"/>
                <iidm:step r="0" x="0" g="0" b="0" rho="0.92592591047286987"/>
                <iidm:step r="0" x="0" g="0" b="0" rho="0.91743117570877075"/>
                <iidm:step r="0" x="0" g="0" b="0" rho="0.90909087657928467"/>
                <iidm:step r="0" x="0" g="0" b="0" rho="0.90090090036392212"/>
                <iidm:step r="0" x="0" g="0" b="0" rho="0.8928571343421936"/>
            </iidm:ratioTapChanger>
            <iidm:currentLimits1 permanentLimit="13279.0986328125"/>
            <iidm:currentLimits2 permanentLimit="13279.0986328125"/>
        </iidm:twoWindingsTransformer>
    </iidm:substation>
...